REMARK  6 active torsions:
REMARK  status: ('A' for Active; 'I' for Inactive)
REMARK    1  A    between atoms: C_2  and  C_4 
REMARK    2  A    between atoms: C_4  and  O_5 
REMARK    3  A    between atoms: O_5  and  C_6 
REMARK    4  A    between atoms: C_12  and  C_13 
REMARK       I    between atoms: C_13  and  N_15 
REMARK    5  A    between atoms: N_15  and  C_16 
REMARK    6  A    between atoms: C_16  and  C_17 
ROOT
HETATM    1  C   UNK     0      -5.335  -4.620   0.000  0.00  0.00     0.206 C 
HETATM    2  O   UNK     0      -5.335  -3.080   0.000  0.00  0.00    -0.170 OA
HETATM    3  N   UNK     0      -6.668  -5.390   0.000  0.00  0.00    -0.241 NA
ENDROOT
BRANCH   1   4
HETATM    4  C   UNK     0      -4.001  -5.390   0.000  0.00  0.00     0.040 A 
HETATM    5  C   UNK     0      -2.667  -4.620   0.000  0.00  0.00     0.077 A 
HETATM    6  C   UNK     0      -1.334  -5.390   0.000  0.00  0.00     0.084 A 
HETATM    7  C   UNK     0      -1.334  -6.930   0.000  0.00  0.00     0.020 A 
HETATM    8 Cl   UNK     0       0.000  -7.700   0.000  0.00  0.00    -0.091 Cl
HETATM    9  C   UNK     0      -2.667  -7.700   0.000  0.00  0.00     0.039 A 
HETATM   10  C   UNK     0      -4.001  -6.930   0.000  0.00  0.00     0.037 A 
BRANCH   5  11
HETATM   11  O   UNK     0      -2.667  -3.080   0.000  0.00  0.00    -0.324 OA
BRANCH  11  12
HETATM   12  C   UNK     0      -1.334  -2.310   0.000  0.00  0.00     0.245 C 
BRANCH  12  13
HETATM   13  C   UNK     0      -1.334  -0.770   0.000  0.00  0.00     0.217 C 
HETATM   14  O   UNK     0       0.000   0.000   0.000  0.00  0.00    -0.645 OA
HETATM   15  O   UNK     0      -2.667   0.000   0.000  0.00  0.00    -0.645 OA
ENDBRANCH  12  13
ENDBRANCH  11  12
ENDBRANCH   5  11
ENDBRANCH   1   4
BRANCH   3  16
HETATM   16  C   UNK     0      -8.002  -4.620   0.000  0.00  0.00     0.158 C 
BRANCH  16  17
HETATM   17  C   UNK     0      -9.336  -5.390   0.000  0.00  0.00     0.049 A 
HETATM   18  C   UNK     0      -9.336  -6.930   0.000  0.00  0.00     0.122 A 
HETATM   19  F   UNK     0      -8.002  -7.700   0.000  0.00  0.00    -0.209 F 
HETATM   20  C   UNK     0     -10.669  -7.700   0.000  0.00  0.00     0.085 A 
HETATM   21  C   UNK     0     -12.003  -6.930   0.000  0.00  0.00     0.004 A 
HETATM   22 Br   UNK     0     -13.337  -7.700   0.000  0.00  0.00    -0.058 Br
HETATM   23  C   UNK     0     -12.003  -5.390   0.000  0.00  0.00     0.085 A 
HETATM   24  C   UNK     0     -10.669  -4.620   0.000  0.00  0.00     0.122 A 
HETATM   25  F   UNK     0     -10.669  -3.080   0.000  0.00  0.00    -0.209 F 
ENDBRANCH  16  17
ENDBRANCH   3  16
TORSDOF 6
