REMARK  4 active torsions:
REMARK  status: ('A' for Active; 'I' for Inactive)
REMARK    1  A    between atoms: C_2  and  C_4 
REMARK    2  A    between atoms: C_4  and  O_5 
REMARK    3  A    between atoms: O_5  and  C_6 
REMARK    4  A    between atoms: C_11  and  C_12 
ROOT
HETATM    1  C   UNK     0      -4.001  -2.310   0.000  0.00  0.00     0.077 A 
HETATM    2  C   UNK     0      -2.667  -3.080   0.000  0.00  0.00     0.103 A 
HETATM    3  C   UNK     0      -2.667  -4.620   0.000  0.00  0.00     0.102 A 
HETATM    4  C   UNK     0      -4.001  -5.390   0.000  0.00  0.00     0.057 A 
HETATM    5  C   UNK     0      -5.335  -4.620   0.000  0.00  0.00     0.037 A 
HETATM    6  C   UNK     0      -5.335  -3.080   0.000  0.00  0.00     0.020 A 
HETATM    7  F   UNK     0      -1.334  -5.390   0.000  0.00  0.00    -0.213 F 
ENDROOT
BRANCH   6   8
HETATM    8  C   UNK     0      -6.668  -2.310   0.000  0.00  0.00     0.103 A 
HETATM    9  S   UNK     0      -8.002  -3.080   0.000  0.00  0.00    -0.073 SA
HETATM   10  C   UNK     0      -9.336  -2.310   0.000  0.00  0.00     0.003 A 
HETATM   11  C   UNK     0      -9.336  -0.770   0.000  0.00  0.00    -0.018 A 
HETATM   12  C   UNK     0     -10.669  -3.080   0.000  0.00  0.00     0.032 A 
HETATM   13  C   UNK     0      -8.002   0.000   0.000  0.00  0.00     0.148 A 
HETATM   14  C   UNK     0     -10.669   0.000   0.000  0.00  0.00     0.024 A 
HETATM   15  N   UNK     0      -6.668  -0.770   0.000  0.00  0.00    -0.260 NA
HETATM   16  C   UNK     0     -12.003  -0.770   0.000  0.00  0.00     0.005 A 
HETATM   17  C   UNK     0     -12.003  -2.310   0.000  0.00  0.00     0.005 A 
ENDBRANCH   6   8
BRANCH   1  18
HETATM   18  O   UNK     0      -4.001  -0.770   0.000  0.00  0.00    -0.324 OA
BRANCH  18  19
HETATM   19  C   UNK     0      -2.667   0.000   0.000  0.00  0.00     0.245 C 
BRANCH  19  20
HETATM   20  C   UNK     0      -2.667   1.540   0.000  0.00  0.00     0.217 C 
HETATM   21  O   UNK     0      -1.334   2.310   0.000  0.00  0.00    -0.645 OA
HETATM   22  O   UNK     0      -4.001   2.310   0.000  0.00  0.00    -0.645 OA
ENDBRANCH  19  20
ENDBRANCH  18  19
ENDBRANCH   1  18
TORSDOF 4
