REMARK  6 active torsions:
REMARK  status: ('A' for Active; 'I' for Inactive)
REMARK    1  A    between atoms: C_2  and  C_4 
REMARK    2  A    between atoms: C_9  and  C_10 
REMARK       I    between atoms: C_10  and  N_12 
REMARK    3  A    between atoms: N_12  and  C_13 
REMARK    4  A    between atoms: C_13  and  C_14 
REMARK    5  A    between atoms: C_19  and  S_20 
REMARK    6  A    between atoms: S_20  and  C_21 
ROOT
HETATM    1  C   UNK     0      -4.001 -10.010   0.000  0.00  0.00    -0.018 A 
HETATM    2  C   UNK     0      -4.001 -11.550   0.000  0.00  0.00     0.024 A 
HETATM    3  C   UNK     0      -5.335 -12.320   0.000  0.00  0.00     0.005 A 
HETATM    4  C   UNK     0      -6.668 -11.550   0.000  0.00  0.00     0.005 A 
HETATM    5  C   UNK     0      -6.668 -10.010   0.000  0.00  0.00     0.032 A 
HETATM    6  C   UNK     0      -5.335  -9.240   0.000  0.00  0.00    -0.003 A 
ENDROOT
BRANCH   1   7
HETATM    7  C   UNK     0      -2.667  -9.240   0.000  0.00  0.00     0.150 C 
BRANCH   7   8
HETATM    8  N   UNK     0      -1.334 -10.010   0.000  0.00  0.00    -0.242 NA
HETATM    9  C   UNK     0       0.000  -9.240   0.000  0.00  0.00     0.205 C 
HETATM   10  O   UNK     0       0.000  -7.700   0.000  0.00  0.00    -0.170 OA
BRANCH   9  11
HETATM   11  C   UNK     0       1.334 -10.010   0.000  0.00  0.00     0.023 A 
HETATM   12  C   UNK     0       2.667  -9.240   0.000  0.00  0.00     0.042 A 
HETATM   13  C   UNK     0       4.001 -10.010   0.000  0.00  0.00     0.032 A 
HETATM   14  C   UNK     0       4.001 -11.550   0.000  0.00  0.00     0.005 A 
HETATM   15  C   UNK     0       2.667 -12.320   0.000  0.00  0.00     0.005 A 
HETATM   16  C   UNK     0       1.334 -11.550   0.000  0.00  0.00     0.030 A 
BRANCH  12  17
HETATM   17  C   UNK     0       2.667  -7.700   0.000  0.00  0.00     0.206 C 
HETATM   18  O   UNK     0       4.001  -6.930   0.000  0.00  0.00    -0.644 OA
HETATM   19  O   UNK     0       1.334  -6.930   0.000  0.00  0.00    -0.644 OA
ENDBRANCH  12  17
ENDBRANCH   9  11
ENDBRANCH   7   8
ENDBRANCH   1   7
BRANCH   6  20
HETATM   20  S   UNK     0      -5.335  -7.700   0.000  0.00  0.00    -0.119 SA
BRANCH  20  21
HETATM   21  C   UNK     0      -6.668  -6.930   0.000  0.00  0.00     0.052 A 
HETATM   22  C   UNK     0      -8.002  -7.700   0.000  0.00  0.00     0.011 A 
HETATM   23  C   UNK     0      -9.336  -6.930   0.000  0.00  0.00     0.001 A 
HETATM   24  C   UNK     0      -9.336  -5.390   0.000  0.00  0.00     0.000 A 
HETATM   25  C   UNK     0      -8.002  -4.620   0.000  0.00  0.00     0.001 A 
HETATM   26  C   UNK     0      -6.668  -5.390   0.000  0.00  0.00     0.011 A 
ENDBRANCH  20  21
ENDBRANCH   6  20
TORSDOF 6
