REMARK  6 active torsions:
REMARK  status: ('A' for Active; 'I' for Inactive)
REMARK    1  A    between atoms: C_2  and  C_4 
REMARK    2  A    between atoms: C_9  and  C_10 
REMARK       I    between atoms: C_10  and  N_12 
REMARK    3  A    between atoms: N_12  and  C_13 
REMARK    4  A    between atoms: C_13  and  C_14 
REMARK    5  A    between atoms: C_20  and  S_21 
REMARK    6  A    between atoms: S_21  and  C_22 
ROOT
HETATM    1  C   UNK     0      -4.001 -10.010   0.000  0.00  0.00     0.011 A 
HETATM    2  C   UNK     0      -4.001 -11.550   0.000  0.00  0.00     0.034 A 
HETATM    3 Cl   UNK     0      -2.667 -12.320   0.000  0.00  0.00    -0.087 Cl
HETATM    4  C   UNK     0      -5.335 -12.320   0.000  0.00  0.00     0.038 A 
HETATM    5  C   UNK     0      -6.668 -11.550   0.000  0.00  0.00     0.011 A 
HETATM    6  C   UNK     0      -6.668 -10.010   0.000  0.00  0.00     0.033 A 
HETATM    7  C   UNK     0      -5.335  -9.240   0.000  0.00  0.00     0.005 A 
ENDROOT
BRANCH   1   8
HETATM    8  C   UNK     0      -2.667  -9.240   0.000  0.00  0.00     0.155 C 
BRANCH   8   9
HETATM    9  N   UNK     0      -1.334 -10.010   0.000  0.00  0.00    -0.242 NA
HETATM   10  C   UNK     0       0.000  -9.240   0.000  0.00  0.00     0.205 C 
HETATM   11  O   UNK     0       0.000  -7.700   0.000  0.00  0.00    -0.170 OA
BRANCH  10  12
HETATM   12  C   UNK     0       1.334 -10.010   0.000  0.00  0.00     0.023 A 
HETATM   13  C   UNK     0       2.667  -9.240   0.000  0.00  0.00     0.042 A 
HETATM   14  C   UNK     0       4.001 -10.010   0.000  0.00  0.00     0.032 A 
HETATM   15  C   UNK     0       4.001 -11.550   0.000  0.00  0.00     0.005 A 
HETATM   16  C   UNK     0       2.667 -12.320   0.000  0.00  0.00     0.005 A 
HETATM   17  C   UNK     0       1.334 -11.550   0.000  0.00  0.00     0.030 A 
BRANCH  13  18
HETATM   18  C   UNK     0       2.667  -7.700   0.000  0.00  0.00     0.206 C 
HETATM   19  O   UNK     0       4.001  -6.930   0.000  0.00  0.00    -0.644 OA
HETATM   20  O   UNK     0       1.334  -6.930   0.000  0.00  0.00    -0.644 OA
ENDBRANCH  13  18
ENDBRANCH  10  12
ENDBRANCH   8   9
ENDBRANCH   1   8
BRANCH   7  21
HETATM   21  S   UNK     0      -5.335  -7.700   0.000  0.00  0.00    -0.095 SA
BRANCH  21  22
HETATM   22  C   UNK     0      -6.668  -6.930   0.000  0.00  0.00     0.014 A 
HETATM   23  C   UNK     0      -8.002  -7.700   0.000  0.00  0.00     0.039 A 
HETATM   24  C   UNK     0      -9.336  -6.930   0.000  0.00  0.00     0.039 A 
HETATM   25  C   UNK     0      -9.336  -5.390   0.000  0.00  0.00     0.019 A 
HETATM   26 Cl   UNK     0     -10.669  -4.620   0.000  0.00  0.00    -0.091 Cl
HETATM   27  C   UNK     0      -8.002  -4.620   0.000  0.00  0.00     0.072 A 
HETATM   28  C   UNK     0      -6.668  -5.390   0.000  0.00  0.00     0.042 A 
HETATM   29 Cl   UNK     0      -5.335  -4.620   0.000  0.00  0.00    -0.086 Cl
ENDBRANCH  21  22
ENDBRANCH   7  21
TORSDOF 6
