REMARK  0 active torsions:
REMARK  status: ('A' for Active; 'I' for Inactive)
ROOT
HETATM    1  C   UNK     0       4.001  -0.770   0.000  0.00  0.00     0.007 A 
HETATM    2  C   UNK     0       5.335   0.000   0.000  0.00  0.00     0.052 A 
HETATM    3  C   UNK     0       6.668  -0.770   0.000  0.00  0.00     0.095 A 
HETATM    4  C   UNK     0       6.668  -2.310   0.000  0.00  0.00     0.052 A 
HETATM    5  C   UNK     0       5.335  -3.080   0.000  0.00  0.00     0.007 A 
HETATM    6  C   UNK     0       4.001  -2.310   0.000  0.00  0.00     0.001 A 
HETATM    7  F   UNK     0       8.002   0.000   0.000  0.00  0.00    -0.214 F 
ENDROOT
TORSDOF 0
